freq-19813-90-2.out
 OpenBabel07032111183D
Gaussian home/mmm0534/bin/g09E/g09 #p opt freq=raman b3lyp/def2svp pop(nbo) nosy
 23 24  0  0  0  0  0  0  0  0999 V2000
   -2.4476   -3.0838   -0.1124 C   0  0  0  0  0  0  0  0  0  0  0  0
   -3.0976   -1.8648    0.0999 C   0  0  0  0  0  0  0  0  0  0  0  0
   -2.3645   -0.6796    0.1668 C   0  0  0  0  0  0  0  0  0  0  0  0
   -0.9646   -0.6859    0.0248 C   0  0  0  0  0  0  0  0  0  0  0  0
   -0.3245   -1.9209   -0.1874 C   0  0  0  0  0  0  0  0  0  0  0  0
   -1.0574   -3.1062   -0.2562 C   0  0  0  0  0  0  0  0  0  0  0  0
   -0.1858    0.5733    0.0964 C   0  0  0  0  0  0  0  0  0  0  0  0
    1.0970    0.6017    0.6769 C   0  0  0  0  0  0  0  0  0  0  0  0
    1.8316    1.7818    0.7445 C   0  0  0  0  0  0  0  0  0  0  0  0
    1.3054    2.9783    0.2276 C   0  0  0  0  0  0  0  0  0  0  0  0
    0.0250    2.9618   -0.3515 C   0  0  0  0  0  0  0  0  0  0  0  0
   -0.7055    1.7784   -0.4134 C   0  0  0  0  0  0  0  0  0  0  0  0
    2.1954    4.5093    0.4006 S   0  0  0  0  0  0  0  0  0  0  0  0
    3.4946    4.5814   -1.5018 Au  0  0  0  0  0  0  0  0  0  0  0  0
    1.5133   -0.3118    1.1062 H   0  0  0  0  0  0  0  0  0  0  0  0
   -1.6876    1.7815   -0.8905 H   0  0  0  0  0  0  0  0  0  0  0  0
   -2.8812    0.2631    0.3584 H   0  0  0  0  0  0  0  0  0  0  0  0
    0.7582   -1.9485   -0.3262 H   0  0  0  0  0  0  0  0  0  0  0  0
    2.8204    1.7920    1.2067 H   0  0  0  0  0  0  0  0  0  0  0  0
   -0.3850    3.8866   -0.7614 H   0  0  0  0  0  0  0  0  0  0  0  0
   -4.1830   -1.8371    0.2226 H   0  0  0  0  0  0  0  0  0  0  0  0
   -0.5401   -4.0526   -0.4311 H   0  0  0  0  0  0  0  0  0  0  0  0
   -3.0215   -4.0119   -0.1654 H   0  0  0  0  0  0  0  0  0  0  0  0
  1  2  1  0  0  0  0
  2  3  2  0  0  0  0
  2 21  1  0  0  0  0
  3 17  1  0  0  0  0
  4  7  1  0  0  0  0
  4  3  1  0  0  0  0
  5  4  2  0  0  0  0
  6  5  1  0  0  0  0
  6  1  2  0  0  0  0
  7  8  1  0  0  0  0
  8  9  2  0  0  0  0
  8 15  1  0  0  0  0
  9 19  1  0  0  0  0
 10 13  1  0  0  0  0
 10  9  1  0  0  0  0
 11 10  2  0  0  0  0
 12 11  1  0  0  0  0
 12  7  2  0  0  0  0
 14 13  1  0  0  0  0
 16 12  1  0  0  0  0
 18  5  1  0  0  0  0
 20 11  1  0  0  0  0
 22  6  1  0  0  0  0
 23  1  1  0  0  0  0
M  END
