freq-19813-90-2.out
 OpenBabel06182112423D
Gaussian home/mmm0534/bin/g09E/g09 #p opt freq=raman b3lyp/def2svp pop(nbo) nosy
 23 24  0  0  0  0  0  0  0  0999 V2000
   -4.6429   -7.5931   -0.5130 C   0  0  0  0  0  0  0  0  0  0  0  0
   -5.2929   -6.3741   -0.3007 C   0  0  0  0  0  0  0  0  0  0  0  0
   -4.5599   -5.1888   -0.2339 C   0  0  0  0  0  0  0  0  0  0  0  0
   -3.1599   -5.1951   -0.3758 C   0  0  0  0  0  0  0  0  0  0  0  0
   -2.5199   -6.4302   -0.5880 C   0  0  0  0  0  0  0  0  0  0  0  0
   -3.2528   -7.6155   -0.6568 C   0  0  0  0  0  0  0  0  0  0  0  0
   -2.3812   -3.9360   -0.3042 C   0  0  0  0  0  0  0  0  0  0  0  0
   -1.0983   -3.9076    0.2763 C   0  0  0  0  0  0  0  0  0  0  0  0
   -0.3637   -2.7275    0.3438 C   0  0  0  0  0  0  0  0  0  0  0  0
   -0.8900   -1.5310   -0.1730 C   0  0  0  0  0  0  0  0  0  0  0  0
   -2.1704   -1.5475   -0.7522 C   0  0  0  0  0  0  0  0  0  0  0  0
   -2.9009   -2.7309   -0.8140 C   0  0  0  0  0  0  0  0  0  0  0  0
    0.0000    0.0000    0.0000 S   0  0  0  0  0  0  0  0  0  0  0  0
    1.2992    0.0722   -1.9025 Au  0  0  0  0  0  0  0  0  0  0  0  0
   -0.6821   -4.8211    0.7056 H   0  0  0  0  0  0  0  0  0  0  0  0
   -3.8830   -2.7278   -1.2911 H   0  0  0  0  0  0  0  0  0  0  0  0
   -5.0766   -4.2462   -0.0422 H   0  0  0  0  0  0  0  0  0  0  0  0
   -1.4372   -6.4578   -0.7268 H   0  0  0  0  0  0  0  0  0  0  0  0
    0.6250   -2.7173    0.8061 H   0  0  0  0  0  0  0  0  0  0  0  0
   -2.5803   -0.6226   -1.1620 H   0  0  0  0  0  0  0  0  0  0  0  0
   -6.3784   -6.3463   -0.1780 H   0  0  0  0  0  0  0  0  0  0  0  0
   -2.7355   -8.5619   -0.8318 H   0  0  0  0  0  0  0  0  0  0  0  0
   -5.2169   -8.5212   -0.5660 H   0  0  0  0  0  0  0  0  0  0  0  0
  1  2  2  0  0  0  0
  2  3  1  0  0  0  0
  2 21  1  0  0  0  0
  3 17  1  0  0  0  0
  4  7  1  0  0  0  0
  4  3  2  0  0  0  0
  5  4  1  0  0  0  0
  6  5  2  0  0  0  0
  6  1  1  0  0  0  0
  7  8  2  0  0  0  0
  8  9  1  0  0  0  0
  8 15  1  0  0  0  0
  9 19  1  0  0  0  0
 10 13  1  0  0  0  0
 10  9  2  0  0  0  0
 11 10  1  0  0  0  0
 12 11  2  0  0  0  0
 12  7  1  0  0  0  0
 14 13  1  0  0  0  0
 16 12  1  0  0  0  0
 18  5  1  0  0  0  0
 20 11  1  0  0  0  0
 22  6  1  0  0  0  0
 23  1  1  0  0  0  0
M  END
