rot_freq-19813-90-2_tilt.xyz
 OpenBabel06282111073D

 23 24  0  0  0  0  0  0  0  0999 V2000
    0.0295   -4.8036    7.5100 C   0  0  0  0  0  0  0  0  0  0  0  0
    1.0346   -4.9717    6.5534 C   0  0  0  0  0  0  0  0  0  0  0  0
    1.0292   -4.2072    5.3863 C   0  0  0  0  0  0  0  0  0  0  0  0
    0.0178   -3.2583    5.1477 C   0  0  0  0  0  0  0  0  0  0  0  0
   -0.9876   -3.1013    6.1197 C   0  0  0  0  0  0  0  0  0  0  0  0
   -0.9815   -3.8643    7.2877 C   0  0  0  0  0  0  0  0  0  0  0  0
    0.0119   -2.4465    3.9076 C   0  0  0  0  0  0  0  0  0  0  0  0
   -1.1970   -2.0868    3.2809 C   0  0  0  0  0  0  0  0  0  0  0  0
   -1.2064   -1.3235    2.1172 C   0  0  0  0  0  0  0  0  0  0  0  0
    0.0000   -0.8896    1.5409 C   0  0  0  0  0  0  0  0  0  0  0  0
    1.2123   -1.2451    2.1566 C   0  0  0  0  0  0  0  0  0  0  0  0
    1.2145   -2.0112    3.3190 C   0  0  0  0  0  0  0  0  0  0  0  0
    0.0000    0.0000    0.0000 S   0  0  0  0  0  0  0  0  0  0  0  0
   -0.1553    2.2020    0.6629 Au  0  0  0  0  0  0  0  0  0  0  0  0
   -2.1436   -2.4347    3.6990 H   0  0  0  0  0  0  0  0  0  0  0  0
    2.1659   -2.2548    3.7960 H   0  0  0  0  0  0  0  0  0  0  0  0
    1.8055   -4.3658    4.6350 H   0  0  0  0  0  0  0  0  0  0  0  0
   -1.7686   -2.3532    5.9692 H   0  0  0  0  0  0  0  0  0  0  0  0
   -2.1501   -1.0608    1.6359 H   0  0  0  0  0  0  0  0  0  0  0  0
    2.1515   -0.9041    1.7174 H   0  0  0  0  0  0  0  0  0  0  0  0
    1.8246   -5.7095    6.7129 H   0  0  0  0  0  0  0  0  0  0  0  0
   -1.7672   -3.7187    8.0330 H   0  0  0  0  0  0  0  0  0  0  0  0
    0.0339   -5.4017    8.4242 H   0  0  0  0  0  0  0  0  0  0  0  0
  1 23  1  0  0  0  0
  2 21  1  0  0  0  0
  2  1  2  0  0  0  0
  3  2  1  0  0  0  0
  4  3  2  0  0  0  0
  4  5  1  0  0  0  0
  5  6  2  0  0  0  0
  6  1  1  0  0  0  0
  6 22  1  0  0  0  0
  7  4  1  0  0  0  0
  8 15  1  0  0  0  0
  8  7  2  0  0  0  0
  9  8  1  0  0  0  0
 10  9  2  0  0  0  0
 10 11  1  0  0  0  0
 11 12  2  0  0  0  0
 12 16  1  0  0  0  0
 12  7  1  0  0  0  0
 13 14  1  0  0  0  0
 13 10  1  0  0  0  0
 17  3  1  0  0  0  0
 18  5  1  0  0  0  0
 19  9  1  0  0  0  0
 20 11  1  0  0  0  0
M  END
