rot_freq-19813-90-2_tilt.xyz
 OpenBabel06242116363D

 23 24  0  0  0  0  0  0  0  0999 V2000
    0.4050   -7.6978    4.4783 C   0  0  0  0  0  0  0  0  0  0  0  0
    1.0289   -6.5505    4.9766 C   0  0  0  0  0  0  0  0  0  0  0  0
    0.9504   -5.3469    4.2754 C   0  0  0  0  0  0  0  0  0  0  0  0
    0.2479   -5.2628    3.0590 C   0  0  0  0  0  0  0  0  0  0  0  0
   -0.3740   -6.4264    2.5700 C   0  0  0  0  0  0  0  0  0  0  0  0
   -0.2973   -7.6298    3.2718 C   0  0  0  0  0  0  0  0  0  0  0  0
    0.1650   -3.9841    2.3140 C   0  0  0  0  0  0  0  0  0  0  0  0
    0.1668   -3.9628    0.9058 C   0  0  0  0  0  0  0  0  0  0  0  0
    0.0875   -2.7642    0.2029 C   0  0  0  0  0  0  0  0  0  0  0  0
    0.0000   -1.5409    0.8896 C   0  0  0  0  0  0  0  0  0  0  0  0
    0.0000   -1.5505    2.2950 C   0  0  0  0  0  0  0  0  0  0  0  0
    0.0822   -2.7528    2.9918 C   0  0  0  0  0  0  0  0  0  0  0  0
    0.0000    0.0000    0.0000 S   0  0  0  0  0  0  0  0  0  0  0  0
   -2.2385    0.3787   -0.3980 Au  0  0  0  0  0  0  0  0  0  0  0  0
    0.2590   -4.9004    0.3540 H   0  0  0  0  0  0  0  0  0  0  0  0
    0.0548   -2.7404    4.0832 H   0  0  0  0  0  0  0  0  0  0  0  0
    1.4634   -4.4640    4.6621 H   0  0  0  0  0  0  0  0  0  0  0  0
   -0.9466   -6.3802    1.6414 H   0  0  0  0  0  0  0  0  0  0  0  0
    0.1007   -2.7613   -0.8885 H   0  0  0  0  0  0  0  0  0  0  0  0
   -0.0757   -0.6038    2.8330 H   0  0  0  0  0  0  0  0  0  0  0  0
    1.5881   -6.5947    5.9143 H   0  0  0  0  0  0  0  0  0  0  0  0
   -0.7960   -8.5186    2.8776 H   0  0  0  0  0  0  0  0  0  0  0  0
    0.4660   -8.6402    5.0276 H   0  0  0  0  0  0  0  0  0  0  0  0
  1  2  1  0  0  0  0
  1 23  1  0  0  0  0
  2 21  1  0  0  0  0
  3 17  1  0  0  0  0
  3  2  2  0  0  0  0
  4  3  1  0  0  0  0
  5  4  2  0  0  0  0
  5  6  1  0  0  0  0
  6  1  2  0  0  0  0
  7 12  1  0  0  0  0
  7  4  1  0  0  0  0
  8  7  2  0  0  0  0
  9 10  2  0  0  0  0
  9  8  1  0  0  0  0
 10 11  1  0  0  0  0
 11 20  1  0  0  0  0
 11 12  2  0  0  0  0
 12 16  1  0  0  0  0
 13 10  1  0  0  0  0
 14 13  1  0  0  0  0
 15  8  1  0  0  0  0
 18  5  1  0  0  0  0
 19  9  1  0  0  0  0
 22  6  1  0  0  0  0
M  END
